@<TRIPOS>MOLECULE
RESORA09
    56    56     4     0     0
SMALL
NO_CHARGES
****
Generated from the CSD

@<TRIPOS>ATOM
     1 C1       1.2927  -0.0025   6.3349   C.ar      1 RES1   0.0000
     2 C2       1.0389   1.3637   6.4364   C.ar      1 RES1   0.0000
     3 C3       1.6161   2.2493   5.5285   C.ar      1 RES1   0.0000
     4 C4       2.4480   1.7686   4.5191   C.ar      1 RES1   0.0000
     5 C5       2.7018   0.4012   4.4176   C.ar      1 RES1   0.0000
     6 C6       2.1246  -0.4844   5.3255   C.ar      1 RES1   0.0000
     7 D1       0.8389  -0.6989   7.0491   H         1 RES1   0.0000
     8 D2       0.3843   1.7421   7.2304   H         1 RES1   0.0000
     9 D3       1.4161   3.3241   5.6083   H         1 RES1   0.0000
    10 D4       3.3564   0.0227   3.6236   H         1 RES1   0.0000
    11 O1       2.4847  -1.7711   5.2077   O.3       1 RES1   0.0000
    12 O2       3.0002   2.6996   3.6768   O.3       1 RES1   0.0000
    13 D5       1.8317  -2.3729   5.6739   H         1 RES1   0.0000
    14 D6       3.7430   2.2884   3.1482   H         1 RES1   0.0000
    15 C1       2.6128   6.3050   3.6214   C.ar      2 RES2   0.0000
    16 C2       2.8666   7.6712   3.7229   C.ar      2 RES2   0.0000
    17 C3       2.2894   8.5568   2.8150   C.ar      2 RES2   0.0000
    18 C4       1.4575   8.0761   1.8056   C.ar      2 RES2   0.0000
    19 C5       1.2037   6.7087   1.7041   C.ar      2 RES2   0.0000
    20 C6       1.7809   5.8231   2.6120   C.ar      2 RES2   0.0000
    21 D1       3.0666   5.6086   4.3356   H         2 RES2   0.0000
    22 D2       3.5212   8.0496   4.5169   H         2 RES2   0.0000
    23 D3       2.4894   9.6316   2.8948   H         2 RES2   0.0000
    24 D4       0.5491   6.3302   0.9101   H         2 RES2   0.0000
    25 O1       1.4208   4.5364   2.4942   O.3       2 RES2   0.0000
    26 O2       0.9053   9.0071   0.9633   O.3       2 RES2   0.0000
    27 D5       2.0738   3.9346   2.9604   H         2 RES2   0.0000
    28 D6       0.1625   8.5959   0.4347   H         2 RES2   0.0000
    29 C1       5.1982   6.3100   6.3349   C.ar      3 RES3   0.0000
    30 C2       4.9444   4.9438   6.4364   C.ar      3 RES3   0.0000
    31 C3       5.5216   4.0582   5.5285   C.ar      3 RES3   0.0000
    32 C4       6.3535   4.5389   4.5191   C.ar      3 RES3   0.0000
    33 C5       6.6073   5.9063   4.4176   C.ar      3 RES3   0.0000
    34 C6       6.0301   6.7919   5.3255   C.ar      3 RES3   0.0000
    35 D1       4.7444   7.0064   7.0491   H         3 RES3   0.0000
    36 D2       4.2898   4.5654   7.2304   H         3 RES3   0.0000
    37 D3       5.3216   2.9834   5.6083   H         3 RES3   0.0000
    38 D4       7.2619   6.2848   3.6236   H         3 RES3   0.0000
    39 O1       6.3902   8.0786   5.2077   O.3       3 RES3   0.0000
    40 O2       6.9057   3.6079   3.6768   O.3       3 RES3   0.0000
    41 D5       5.7372   8.6804   5.6739   H         3 RES3   0.0000
    42 D6       7.6485   4.0191   3.1482   H         3 RES3   0.0000
    43 C1       6.5183  12.6175   3.6214   C.ar      4 RES4   0.0000
    44 C2       6.7721  11.2513   3.7229   C.ar      4 RES4   0.0000
    45 C3       6.1949  10.3657   2.8150   C.ar      4 RES4   0.0000
    46 C4       5.3630  10.8464   1.8056   C.ar      4 RES4   0.0000
    47 C5       5.1092  12.2138   1.7041   C.ar      4 RES4   0.0000
    48 C6       5.6864  13.0994   2.6120   C.ar      4 RES4   0.0000
    49 D1       6.9721  13.3139   4.3356   H         4 RES4   0.0000
    50 D2       7.4267  10.8729   4.5169   H         4 RES4   0.0000
    51 D3       6.3949   9.2909   2.8948   H         4 RES4   0.0000
    52 D4       4.4546  12.5923   0.9101   H         4 RES4   0.0000
    53 O1       5.3263  14.3861   2.4942   O.3       4 RES4   0.0000
    54 O2       4.8108   9.9154   0.9633   O.3       4 RES4   0.0000
    55 D5       5.9793  14.9879   2.9604   H         4 RES4   0.0000
    56 D6       4.0680  10.3266   0.4347   H         4 RES4   0.0000
@<TRIPOS>BOND
     1     1     2   ar
     2     1     6   ar
     3     1     7    1
     4     2     3   ar
     5     2     8    1
     6     3     4   ar
     7     3     9    1
     8     4     5   ar
     9     4    12    1
    10     5     6   ar
    11     5    10    1
    12     6    11    1
    13    11    13    1
    14    12    14    1
    15    15    16   ar
    16    15    20   ar
    17    15    21    1
    18    16    17   ar
    19    16    22    1
    20    17    18   ar
    21    17    23    1
    22    18    19   ar
    23    18    26    1
    24    19    20   ar
    25    19    24    1
    26    20    25    1
    27    25    27    1
    28    26    28    1
    29    29    30   ar
    30    29    34   ar
    31    29    35    1
    32    30    31   ar
    33    30    36    1
    34    31    32   ar
    35    31    37    1
    36    32    33   ar
    37    32    40    1
    38    33    34   ar
    39    33    38    1
    40    34    39    1
    41    39    41    1
    42    40    42    1
    43    43    44   ar
    44    43    48   ar
    45    43    49    1
    46    44    45   ar
    47    44    50    1
    48    45    46   ar
    49    45    51    1
    50    46    47   ar
    51    46    54    1
    52    47    48   ar
    53    47    52    1
    54    48    53    1
    55    53    55    1
    56    54    56    1
@<TRIPOS>SUBSTRUCTURE
     1 RES1        1 GROUP             0 ****  ****    0  
     2 RES2       15 GROUP             0 ****  ****    0  
     3 RES3       29 GROUP             0 ****  ****    0  
     4 RES4       43 GROUP             0 ****  ****    0  
@<TRIPOS>CRYSIN
    7.8110   12.6150    5.4270   90.0000   90.0000   90.0000    33     1
